power-flow-agent/results/ieee14/2026-09-16/gpt-5.4/react_nogate__stress/traces/05_case14-stress-002-s0.transcript.txt
==============================================================================
TRANSCRIPT  react_nogate  |  openrouter:openai/gpt-5.4  |  case14  |  case14-stress-002-s0  run 0
==============================================================================
date: 2026-09-16   seed: 0   difficulty: stress   tool variant: None

[system]   (hash 7da5e2a37ec4, from methods/react_nogate/method.json prompt_files)
You are a power system power-flow analysis assistant. You help the user complete power system analysis tasks from natural-language requests.

## What you can do
You complete tasks by calling tool functions:
1. Load an IEEE standard test system (14, 30, 57, 118, 300 buses)
2. Run AC power flow
3. Modify the load at a bus and re-solve
4. Disconnect or reconnect a line and re-solve
5. Query the network status
6. Run an N-1 contingency analysis (disconnect branches one at a time and rank the worst cases)
7. Generate remedial-action suggestions (what-if load shedding or voltage adjustment) to reduce violation risk

## Key rules
- Never fabricate any numerical result. Every voltage, power, loss, or loading value must come from a tool return value.
- If a tool reports an error or a non-converged power flow, say so explicitly and do not report numbers for that state.
- If the request is ambiguous, state the interpretation you are using.
- Bus and line identifiers in the request are MATPOWER 1-based ids; pass them to the tools as given, unless the request itself states a different indexing convention for that identifier (e.g. "(0-based)"), in which case convert it to the MATPOWER 1-based id before calling any tool.
- After a network modification, re-solve before reporting any value.
- Always reply in English.

## Reply format
After each analysis, reply in this structure:
1. One-sentence summary
2. Key numbers (total load, total generation, total losses, voltage range) taken from the tool outputs
3. Violations, if any
4. Suggested next step

[user]
Load the 14-bus test case (case14), set the active load at bus 9 to 37.7 MW, disconnect the transformer branch between bus 7 and bus 8, and finally rerun the power flow, then list every line whose loading is above 80%.

--- round 1 ---
[assistant]   (800 in / 20 out tokens, 1.4 s)
(no text)
tool_call  load_case(case_name="case14")
[tool load_case]   (gate: not applied)
{"case_name": "case14", "n_buses": 14, "n_generators": 5, "n_lines": 20, "n_loads": 11, "total_load_mw": 257.9016499664761, "total_gen_capacity_mw": 772.4000000000001}

--- round 2 ---
[assistant]   (901 in / 35 out tokens, 1.3 s)
(no text)
tool_call  modify_load(bus_id=9, p_mw=37.7, q_mvar=16.6)
[tool modify_load]   (gate: pass)
{"case_name": "case14", "converged": true, "bus_voltages": [{"bus_id": 1, "vm_pu": 1.06, "va_deg": 0.0, "is_violation": true, "violation_type": "overvoltage"}, {"bus_id": 2, "vm_pu": 1.0449999999999997, "va_deg": -5.209724513341782, "is_violation": false, "violation_type": null}, {"bus_id": 3, "vm_pu": 1.01, "va_deg": -12.853603548664749, "is_violation": false, "violation_type": null}, {"bus_id": 4, "vm_pu": 1.016174199030944, "va_deg": -10.640339534975555, "is_violation": false, "violation_type": null}, {"bus_id": 5, "vm_pu": 1.018296932594782, "va_deg": -9.073468669722494, "is_violation": false, "violation_type": null}, {"bus_id": 6, "vm_pu": 1.0699999999999998, "va_deg": -14.803008018801746, "is_violation": true, "violation_type": "overvoltage"}, {"bus_id": 7, "vm_pu": 1.0598573865476548, "va_deg": -14.114179639868583, "is_violation": true, "violation_type": "overvoltage"}, {"bus_id": 8, "vm_pu": 1.09, "va_deg": -14.11417963986858, "is_violation": true, "violation_type": "overvoltage"}, {"bus_id": 9, "vm_pu": 1.053512595282316, "va_deg": -15.915709433089544, "is_violation": true, "violation_type": "overvoltage"}, {"bus_id": 10, "vm_pu": 1.0486712249823893, "va_deg": -16.013528053745777, "is_violation": false, "violation_type": null}, {"bus_id": 11, "vm_pu": 1.0555594949344516, "va_deg": -15.54381889174914, "is_violation": true, "violation_type": "overvoltage"}, {"bus_id": 12, "vm_pu": 1.0559116353808697, "va_deg": -15.641999538052833, "is_violation": true, "violation_type": "overvoltage"}, {"bus_id": 13, "vm_pu": 1.0506928744185242, "va_deg": -15.757483615350075, "is_violation": true, "violation_type": "overvoltage"}, {"bus_id": 14, "vm_pu": 1.0337378390470546, "va_deg": -16.877517572257837, "is_violation": false, "violation_type": null}], "line_flows": [{"line_id": 0, "from_bus": 1, "to_bus": 2, "p_from_mw": 163.7537312566112, "q_from_mvar": -21.99548479419041, "loading_percent": 1.5744649328864917, "is_violation": false}, {"line_id": 1, "from_bus": 1, "to_bus": 5, "p_from_mw": 78.00913789712442, "q_from_mvar": 4.213817156519092, "loading_percent": 0.745016393779307, "is_violation": false}, {"line_id": 2, "from_bus": 2, "to_bus": 3, "p_from_mw": 72.34897455643356, "q_from_mvar": 3.648261381996792, "loading_percent": 0.7009964530634395, "is_violation": false}, {"line_id": 3, "from_bus": 2, "to_bus": 4, "p_from_mw": 57.29594971583706, "q_from_mvar": -0.9520678924734196, "loading_percent": 0.5539013026815036, "is_violation": false}, {"line_id": 4, "from_bus": 2, "to_bus": 5, "p_from_mw": 42.40128945889379, "q_from_mvar": 1.6625513422341611, "loading_percent": 0.4119593631592615, "is_violation": false}, {"line_id": 5, "from_bus": 3, "to_bus": 4, "p_from_mw": -21.17725691111879, "q_from_mvar": 4.445997336206927, "loading_percent": 0.21923074349852323, "is_violation": false}, {"line_id": 6, "from_bus": 4, "to_bus": 5, "p_from_mw": -62.26598295756429, "q_from_mvar": 15.536330400102113, "loading_percent": 0.6379145328492983, "is_violation": false}, {"line_id": 7, "from_bus": 6, "to_bus": 11, "p_from_mw": 9.017773638629459, "q_from_mvar": 3.5096355352342603, "loading_percent": 0.09134958716887728, "is_violation": false}, {"line_id": 8, "from_bus": 6, "to_bus": 12, "p_from_mw": 7.57300778410519, "q_from_mvar": 2.3015886697121046, "loading_percent": 0.07471947159561458, "is_violation": false}, {"line_id": 9, "from_bus": 6, "to_bus": 13, "p_from_mw": 17.87928311705021, "q_from_mvar": 6.89911043391281, "loading_percent": 0.18091379325387483, "is_violation": false}, {"line_id": 10, "from_bus": 9, "to_bus": 10, "p_from_mw": 3.945922789170845, "q_from_mvar": 4.552493050513104, "loading_percent": 0.057763229029330385, "is_violation": false}, {"line_id": 11, "from_bus": 9, "to_bus": 14, "p_from_mw": 8.525825516014583, "q_from_mvar": 3.753687035447465, "loading_percent": 0.08931708968253108, "is_violation": false}, {"line_id": 12, "from_bus": 10, "to_bus": 11, "p_from_mw": -5.3471261598129685, "q_from_mvar": -1.4572900211233029, "loading_percent": 0.053383114998597894, "is_violation": false}, {"line_id": 13, "from_bus": 12, "to_bus": 13, "p_from_mw": 1.8757276449059785, "q_from_mvar": 0.6848841730521507, "loading_percent": 0.01910219394223942, "is_violation": false}, {"line_id": 14, "from_bus": 13, "to_bus": 14, "p_from_mw": 6.963958093183062, "q_from_mvar": 1.7581061598156755, "loading_percent": 0.06904971478822405, "is_violation": false}, {"line_id": 100000, "from_bus": 4, "to_bus": 7, "p_from_mw": 31.908196093959475, "q_from_mvar": -9.379243179678861, "loading_percent": 0.3305936155031169, "is_violation": false}, {"line_id": 100001, "from_bus": 4, "to_bus": 9, "p_from_mw": 18.263552211040178, "q_from_mvar": -0.06917239885151309, "loading_percent": 0.18154529873319752, "is_violation": false}, {"line_id": 100002, "from_bus": 5, "to_bus": 6, "p_from_mw": 46.31058977261393, "q_from_mvar": 12.112406374887383, "loading_percent": 0.47483096684636933, "is_violation": false}, {"line_id": 100003, "from_bus": 7, "to_bus": 8, "p_from_mw": -2.4122832606056202e-14, "q_from_mvar": -18.13617457696208, "loading_percent": 0.17284748393583949, "is_violation": false}, {"line_id": 100004, "from_bus": 7, "to_bus": 9, "p_from_mw": 31.90819609359353, "q_from_mvar": 6.614373368154052, "loading_percent": 0.31056727448829663, "is_violation": false}], "total_generation_mw": 278.4463514077649, "total_load_mw": 264.42776694368655, "total_loss_mw": 14.018584471125742, "voltage_violations": [{"bus_id": 1, "vm_pu": 1.06, "va_deg": 0.0, "is_violation": true, "violation_type": "overvoltage"}, {"bus_id": 6, "vm_pu": 1.0699999999999998, "va_deg": -14.803008018801746, "is_violation": true, "violation_type": "overvoltage"}, {"bus_id": 7, "vm_pu": 1.0598573865476548, "va_deg": -14.114179639868583, "is_violation": true, "violation_type": "overvoltage"}, {"bus_id": 8, "vm_pu": 1.09, "va_deg": -14.11417963986858, "is_violation": true, "violation_type": "overvoltage"}, {"bus_id": 9, "vm_pu": 1.053512595282316, "va_deg": -15.915709433089544, "is_violation": true, "violation_type": "overvoltage"}, {"bus_id": 11, "vm_pu": 1.0555594949344516, "va_deg": -15.54381889174914, "is_violation": true, "violation_type": "overvoltage"}, {"bus_id": 12, "vm_pu": 1.0559116353808697, "va_deg": -15.641999538052833, "is_violation": true, "violation_type": "overvoltage"}, {"bus_id": 13, "vm_pu": 1.0506928744185242, "va_deg": -15.757483615350075, "is_violation": true, "violation_type": "overvoltage"}], "thermal_violations": [], "summary_text": "", "solver_backend": "pandapower", "llm_prompt": null, "llm_response": null}

--- round 3 ---
[assistant]   (3608 in / 24 out tokens, 1.3 s)
(no text)
tool_call  disconnect_line(from_bus=7, to_bus=8)
[tool disconnect_line]   (gate: FAIL, not enforced)
{"case_name": "case14", "converged": true, "bus_voltages": [{"bus_id": 1, "vm_pu": 1.06, "va_deg": 0.0, "is_violation": true, "violation_type": "overvoltage"}, {"bus_id": 2, "vm_pu": 1.0449999999999997, "va_deg": -5.218146717892699, "is_violation": false, "violation_type": null}, {"bus_id": 3, "vm_pu": 1.01, "va_deg": -12.889015151774167, "is_violation": false, "violation_type": null}, {"bus_id": 4, "vm_pu": 1.010235035049721, "va_deg": -10.554149248846505, "is_violation": false, "violation_type": null}, {"bus_id": 5, "vm_pu": 1.0144996644877442, "va_deg": -9.044805663144237, "is_violation": false, "violation_type": null}, {"bus_id": 6, "vm_pu": 1.0700000000000005, "va_deg": -14.969745951660547, "is_violation": true, "violation_type": "overvoltage"}, {"bus_id": 7, "vm_pu": 1.0333284625917942, "va_deg": -14.031791918305071, "is_violation": false, "violation_type": null}, {"bus_id": 8, "vm_pu": NaN, "va_deg": NaN, "is_violation": false, "violation_type": null}, {"bus_id": 9, "vm_pu": 1.0350478519095607, "va_deg": -15.856743874448592, "is_violation": false, "violation_type": null}, {"bus_id": 10, "vm_pu": 1.033358042050252, "va_deg": -15.990784804467651, "is_violation": false, "violation_type": null}, {"bus_id": 11, "vm_pu": 1.0477282227352198, "va_deg": -15.603712804292197, "is_violation": false, "violation_type": null}, {"bus_id": 12, "vm_pu": 1.0545151812694478, "va_deg": -15.806645922467116, "is_violation": true, "violation_type": "overvoltage"}, {"bus_id": 13, "vm_pu": 1.047972364503456, "va_deg": -15.88951255409502, "is_violation": false, "violation_type": null}, {"bus_id": 14, "vm_pu": 1.021922428552333, "va_deg": -16.92155574556259, "is_violation": false, "violation_type": null}], "line_flows": [{"line_id": 0, "from_bus": 1, "to_bus": 2, "p_from_mw": 164.0086236999947, "q_from_mvar": -22.053962608260882, "loading_percent": 1.576946449113109, "is_violation": false}, {"line_id": 1, "from_bus": 1, "to_bus": 5, "p_from_mw": 77.91440764184112, "q_from_mvar": 5.980861351302636, "loading_percent": 0.7463915368153905, "is_violation": false}, {"line_id": 2, "from_bus": 2, "to_bus": 3, "p_from_mw": 72.59211548658936, "q_from_mvar": 3.6240132297178076, "loading_percent": 0.703293838084616, "is_violation": false}, {"line_id": 3, "from_bus": 2, "to_bus": 4, "p_from_mw": 57.121713889337, "q_from_mvar": 2.5167767869695536, "loading_percent": 0.5537381491488197, "is_violation": false}, {"line_id": 4, "from_bus": 2, "to_bus": 5, "p_from_mw": 42.57248253495182, "q_from_mvar": 3.856946761836432, "loading_percent": 0.4168077113833776, "is_violation": false}, {"line_id": 5, "from_bus": 3, "to_bus": 4, "p_from_mw": -20.94915449709992, "q_from_mvar": 7.911562374417105, "loading_percent": 0.22865015522380983, "is_violation": false}, {"line_id": 6, "from_bus": 4, "to_bus": 5, "p_from_mw": -60.956170892441605, "q_from_mvar": 9.938164979837342, "loading_percent": 0.6175281259681632, "is_violation": false}, {"line_id": 7, "from_bus": 6, "to_bus": 11, "p_from_mw": 9.750762984837662, "q_from_mvar": 7.359553815597601, "loading_percent": 0.11532520788359484, "is_violation": false}, {"line_id": 8, "from_bus": 6, "to_bus": 12, "p_from_mw": 7.78087354660813, "q_from_mvar": 2.7855242206808812, "loading_percent": 0.07801803336216068, "is_violation": false}, {"line_id": 9, "from_bus": 6, "to_bus": 13, "p_from_mw": 18.333706973618792, "q_from_mvar": 8.89406745513884, "loading_percent": 0.19236453001129095, "is_violation": false}, {"line_id": 10, "from_bus": 9, "to_bus": 10, "p_from_mw": 3.2772744914097625, "q_from_mvar": 0.8395975952536886, "loading_percent": 0.033015726275216914, "is_violation": false}, {"line_id": 11, "from_bus": 9, "to_bus": 14, "p_from_mw": 7.91460241486145, "q_from_mvar": 1.371346675623165, "loading_percent": 0.07838928124525579, "is_violation": false}, {"line_id": 12, "from_bus": 10, "to_bus": 11, "p_from_mw": -6.008770385295857, "q_from_mvar": -5.151579876536749, "loading_percent": 0.07736669728058325, "is_violation": false}, {"line_id": 13, "from_bus": 12, "to_bus": 13, "p_from_mw": 2.0775242567437116, "q_from_mvar": 1.1561881282181143, "loading_percent": 0.02277439119695504, "is_violation": false}, {"line_id": 14, "from_bus": 13, "to_bus": 14, "p_from_mw": 7.589136972114038, "q_from_mvar": 4.16678116815678, "loading_percent": 0.08344902416736014, "is_violation": false}, {"line_id": 100000, "from_bus": 4, "to_bus": 7, "p_from_mw": 30.961502188260027, "q_from_mvar": 0.7579872292788379, "loading_percent": 0.3096667036659953, "is_violation": false}, {"line_id": 100001, "from_bus": 4, "to_bus": 9, "p_from_mw": 17.930374718936427, "q_from_mvar": 2.2373613916038577, "loading_percent": 0.18067027884982761, "is_violation": false}, {"line_id": 100002, "from_bus": 5, "to_bus": 6, "p_from_mw": 47.70586873599591, "q_from_mvar": 10.467489077767954, "loading_percent": 0.48628980583465886, "is_violation": false}, {"line_id": 100003, "from_bus": 7, "to_bus": 8, "p_from_mw": 0.0, "q_from_mvar": 0.0, "loading_percent": NaN, "is_violation": false}, {"line_id": 100004, "from_bus": 7, "to_bus": 9, "p_from_mw": 30.961502187712025, "q_from_mvar": -1.1219038694009393, "loading_percent": 0.3028540361802299, "is_violation": false}], "total_generation_mw": 278.6065135958651, "total_load_mw": 264.42776694368655, "total_loss_mw": 14.178746667851655, "voltage_violations": [{"bus_id": 1, "vm_pu": 1.06, "va_deg": 0.0, "is_violation": true, "violation_type": "overvoltage"}, {"bus_id": 6, "vm_pu": 1.0700000000000005, "va_deg": -14.969745951660547, "is_violation": true, "violation_type": "overvoltage"}, {"bus_id": 12, "vm_pu": 1.0545151812694478, "va_deg": -15.806645922467116, "is_violation": true, "violation_type": "overvoltage"}], "thermal_violations": [], "summary_text": "", "solver_backend": "pandapower", "llm_prompt": null, "llm_response": null}

--- round 4 ---
[assistant]   (6005 in / 15 out tokens, 1.1 s)
(no text)
tool_call  run_powerflow()
[tool run_powerflow]   (gate: FAIL, not enforced)
{"case_name": "case14", "converged": true, "bus_voltages": [{"bus_id": 1, "vm_pu": 1.06, "va_deg": 0.0, "is_violation": true, "violation_type": "overvoltage"}, {"bus_id": 2, "vm_pu": 1.0449999999999997, "va_deg": -5.218146717892699, "is_violation": false, "violation_type": null}, {"bus_id": 3, "vm_pu": 1.01, "va_deg": -12.889015151774167, "is_violation": false, "violation_type": null}, {"bus_id": 4, "vm_pu": 1.010235035049721, "va_deg": -10.554149248846505, "is_violation": false, "violation_type": null}, {"bus_id": 5, "vm_pu": 1.0144996644877442, "va_deg": -9.044805663144237, "is_violation": false, "violation_type": null}, {"bus_id": 6, "vm_pu": 1.0700000000000005, "va_deg": -14.969745951660547, "is_violation": true, "violation_type": "overvoltage"}, {"bus_id": 7, "vm_pu": 1.0333284625917942, "va_deg": -14.031791918305071, "is_violation": false, "violation_type": null}, {"bus_id": 8, "vm_pu": NaN, "va_deg": NaN, "is_violation": false, "violation_type": null}, {"bus_id": 9, "vm_pu": 1.0350478519095607, "va_deg": -15.856743874448592, "is_violation": false, "violation_type": null}, {"bus_id": 10, "vm_pu": 1.033358042050252, "va_deg": -15.990784804467651, "is_violation": false, "violation_type": null}, {"bus_id": 11, "vm_pu": 1.0477282227352198, "va_deg": -15.603712804292197, "is_violation": false, "violation_type": null}, {"bus_id": 12, "vm_pu": 1.0545151812694478, "va_deg": -15.806645922467116, "is_violation": true, "violation_type": "overvoltage"}, {"bus_id": 13, "vm_pu": 1.047972364503456, "va_deg": -15.88951255409502, "is_violation": false, "violation_type": null}, {"bus_id": 14, "vm_pu": 1.021922428552333, "va_deg": -16.92155574556259, "is_violation": false, "violation_type": null}], "line_flows": [{"line_id": 0, "from_bus": 1, "to_bus": 2, "p_from_mw": 164.0086236999947, "q_from_mvar": -22.053962608260882, "loading_percent": 1.576946449113109, "is_violation": false}, {"line_id": 1, "from_bus": 1, "to_bus": 5, "p_from_mw": 77.91440764184112, "q_from_mvar": 5.980861351302636, "loading_percent": 0.7463915368153905, "is_violation": false}, {"line_id": 2, "from_bus": 2, "to_bus": 3, "p_from_mw": 72.59211548658936, "q_from_mvar": 3.6240132297178076, "loading_percent": 0.703293838084616, "is_violation": false}, {"line_id": 3, "from_bus": 2, "to_bus": 4, "p_from_mw": 57.121713889337, "q_from_mvar": 2.5167767869695536, "loading_percent": 0.5537381491488197, "is_violation": false}, {"line_id": 4, "from_bus": 2, "to_bus": 5, "p_from_mw": 42.57248253495182, "q_from_mvar": 3.856946761836432, "loading_percent": 0.4168077113833776, "is_violation": false}, {"line_id": 5, "from_bus": 3, "to_bus": 4, "p_from_mw": -20.94915449709992, "q_from_mvar": 7.911562374417105, "loading_percent": 0.22865015522380983, "is_violation": false}, {"line_id": 6, "from_bus": 4, "to_bus": 5, "p_from_mw": -60.956170892441605, "q_from_mvar": 9.938164979837342, "loading_percent": 0.6175281259681632, "is_violation": false}, {"line_id": 7, "from_bus": 6, "to_bus": 11, "p_from_mw": 9.750762984837662, "q_from_mvar": 7.359553815597601, "loading_percent": 0.11532520788359484, "is_violation": false}, {"line_id": 8, "from_bus": 6, "to_bus": 12, "p_from_mw": 7.78087354660813, "q_from_mvar": 2.7855242206808812, "loading_percent": 0.07801803336216068, "is_violation": false}, {"line_id": 9, "from_bus": 6, "to_bus": 13, "p_from_mw": 18.333706973618792, "q_from_mvar": 8.89406745513884, "loading_percent": 0.19236453001129095, "is_violation": false}, {"line_id": 10, "from_bus": 9, "to_bus": 10, "p_from_mw": 3.2772744914097625, "q_from_mvar": 0.8395975952536886, "loading_percent": 0.033015726275216914, "is_violation": false}, {"line_id": 11, "from_bus": 9, "to_bus": 14, "p_from_mw": 7.91460241486145, "q_from_mvar": 1.371346675623165, "loading_percent": 0.07838928124525579, "is_violation": false}, {"line_id": 12, "from_bus": 10, "to_bus": 11, "p_from_mw": -6.008770385295857, "q_from_mvar": -5.151579876536749, "loading_percent": 0.07736669728058325, "is_violation": false}, {"line_id": 13, "from_bus": 12, "to_bus": 13, "p_from_mw": 2.0775242567437116, "q_from_mvar": 1.1561881282181143, "loading_percent": 0.02277439119695504, "is_violation": false}, {"line_id": 14, "from_bus": 13, "to_bus": 14, "p_from_mw": 7.589136972114038, "q_from_mvar": 4.16678116815678, "loading_percent": 0.08344902416736014, "is_violation": false}, {"line_id": 100000, "from_bus": 4, "to_bus": 7, "p_from_mw": 30.961502188260027, "q_from_mvar": 0.7579872292788379, "loading_percent": 0.3096667036659953, "is_violation": false}, {"line_id": 100001, "from_bus": 4, "to_bus": 9, "p_from_mw": 17.930374718936427, "q_from_mvar": 2.2373613916038577, "loading_percent": 0.18067027884982761, "is_violation": false}, {"line_id": 100002, "from_bus": 5, "to_bus": 6, "p_from_mw": 47.70586873599591, "q_from_mvar": 10.467489077767954, "loading_percent": 0.48628980583465886, "is_violation": false}, {"line_id": 100003, "from_bus": 7, "to_bus": 8, "p_from_mw": 0.0, "q_from_mvar": 0.0, "loading_percent": NaN, "is_violation": false}, {"line_id": 100004, "from_bus": 7, "to_bus": 9, "p_from_mw": 30.961502187712025, "q_from_mvar": -1.1219038694009393, "loading_percent": 0.3028540361802299, "is_violation": false}], "total_generation_mw": 278.6065135958651, "total_load_mw": 264.42776694368655, "total_loss_mw": 14.178746667851655, "voltage_violations": [{"bus_id": 1, "vm_pu": 1.06, "va_deg": 0.0, "is_violation": true, "violation_type": "overvoltage"}, {"bus_id": 6, "vm_pu": 1.0700000000000005, "va_deg": -14.969745951660547, "is_violation": true, "violation_type": "overvoltage"}, {"bus_id": 12, "vm_pu": 1.0545151812694478, "va_deg": -15.806645922467116, "is_violation": true, "violation_type": "overvoltage"}], "thermal_violations": [], "summary_text": "", "solver_backend": "pandapower", "llm_prompt": null, "llm_response": null}

--- round 5 ---
[assistant]   (8394 in / 245 out tokens, 3.0 s)
1. Summary: I loaded case14, set bus 9 active load to 37.7 MW using the existing reactive load at that bus, disconnected branch 7–8, reran the power flow successfully, and found no connected line loaded above 80%.

2. Key numbers:
- Total load: 264.4278 MW
- Total generation: 278.6065 MW
- Total losses: 14.1787 MW
- Voltage range: 1.0102 to 1.0700 pu among solved buses
- Note: bus 8 is isolated after disconnecting 7–8, so its voltage is reported as NaN and excluded from the range

3. Violations:
- Lines above 80% loading: none
- Voltage violations:
  - Bus 1: 1.0600 pu overvoltage
  - Bus 6: 1.0700 pu overvoltage
  - Bus 12: 1.0545 pu overvoltage

4. Suggested next step:
- If you want, I can list all line loadings in descending order or check the most heavily loaded line after this outage.

[final answer]
1. Summary: I loaded case14, set bus 9 active load to 37.7 MW using the existing reactive load at that bus, disconnected branch 7–8, reran the power flow successfully, and found no connected line loaded above 80%.

2. Key numbers:
- Total load: 264.4278 MW
- Total generation: 278.6065 MW
- Total losses: 14.1787 MW
- Voltage range: 1.0102 to 1.0700 pu among solved buses
- Note: bus 8 is isolated after disconnecting 7–8, so its voltage is reported as NaN and excluded from the range

3. Violations:
- Lines above 80% loading: none
- Voltage violations:
  - Bus 1: 1.0600 pu overvoltage
  - Bus 6: 1.0700 pu overvoltage
  - Bus 12: 1.0545 pu overvoltage

4. Suggested next step:
- If you want, I can list all line loadings in descending order or check the most heavily loaded line after this outage.
